data/case533mt_lo.m
function mpc = case533mt_lo
%CASE533MT  Power flow data for 533-bus distribution system from Malmer & Thorin
%   Please see CASEFORMAT for details on the case file format.
%
%   This case is based on real system data from the local DSO Kraftringen in
%   southern Sweden. The system covers about 20x30 km and serves about 30,000
%   inhabitants plus an industrial area. 
% 
%   In 2022, the total net load in the system ranged from -5 to 45 MW. 
%   The default loads in this case correspond to the net loads during
%   the minimum net load hour of 2022 (Pd_tot = -5 MW).
%
%   Data from ...
%       G. Malmer & L. Thorin, 
%       "Network reconfiguration for renewable generation maximization",
%       Master's thesis, Lund University, 2023
%       URL: http://lup.lub.lu.se/student-papers/record/9124806
%
%   Modifications:
%     v2 - 2025-06-14 (WGV)
%         - Set the tap parameter of branch # 1 and 2 to 1.0 to model
%           transformers with nominal turns ratio. This configuration 
%           benefits the convert_1p_to_3p function.

%   MATPOWER
%   Copyright (c) 2023 by Gabriel Malmer and Lovisa Thorin
%   Licensed under the Creative Commons Attribution 4.0 International license,
%   https://creativecommons.org/licenses/by/4.0/

%% MATPOWER Case Format : Version 2
mpc.version = '2';

%%-----  Power Flow Data  -----%%
%% system MVA base
mpc.baseMVA = 50/3; 

%% bus data

% Pd are net loads (pL - pG) from the minimum total net load hour of 2022, Jul 10 at 14:00
% Qd = 0.01*Pd

%	bus_i type Pd	        Qd	            Gs	Bs	area Vm	Va	baseKV	    zone Vmax	Vmin
mpc.bus = [ %% (Pd and Qd are given in single-phase MW & MVAr here)
    1	3	0	            0	            0	0	1	1	0	135/sqrt(3)	1	1	    1;
    2	1	0	            0	            0	0	1	1	0	12/sqrt(3)	1	1.05	0.95;
    3	1	0	            0	            0	0	1	1	0	12/sqrt(3)	1	1.05	0.95;
    4	1	0	            0	            0	0	1	1	0	135/sqrt(3)	1	1.05	0.95;
    5	1	0	            0	            0	0	1	1	0	12/sqrt(3)	1	1.05	0.95;
    6	1	-0.015666667	-0.000156667	0	0	1	1	0	12/sqrt(3)	1	1.05	0.95;
    7	1	-0.224666667	-0.002246667	0	0	1	1	0	12/sqrt(3)	1	1.05	0.95;
    8	1	-0.205333333	-0.002053333	0	0	1	1	0	12/sqrt(3)	1	1.05	0.95;
    9	1	0.004427333	    4.43E-05	    0	0	1	1	0	12/sqrt(3)	1	1.05	0.95;
    10	1	3.33E-05	    3.33E-07	    0	0	1	1	0	12/sqrt(3)	1	1.05	0.95;
    11	1	-0.001271	    -1.27E-05	    0	0	1	1	0	12/sqrt(3)	1	1.05	0.95;
    12	1	0.000933333	    9.33E-06	    0	0	1	1	0	12/sqrt(3)	1	1.05	0.95;
    13	1	0.002866667	    2.87E-05	    0	0	1	1	0	12/sqrt(3)	1	1.05	0.95;
    14	1	0.002033333	    2.03E-05	    0	0	1	1	0	12/sqrt(3)	1	1.05	0.95;
    15	1	0.000966667	    9.67E-06	    0	0	1	1	0	12/sqrt(3)	1	1.05	0.95;
    16	1	0.000633333	    6.33E-06	    0	0	1	1	0	12/sqrt(3)	1	1.05	0.95;
    17	1	0.002332333	    2.33E-05	    0	0	1	1	0	12/sqrt(3)	1	1.05	0.95;
    18	1	-0.000740333	-7.40E-06	    0	0	1	1	0	12/sqrt(3)	1	1.05	0.95;
    19	1	0.000566667	    5.67E-06	    0	0	1	1	0	12/sqrt(3)	1	1.05	0.95;
    20	1	0.002306667	    2.31E-05	    0	0	1	1	0	12/sqrt(3)	1	1.05	0.95;
    21	1	0.0006	        6.00E-06	    0	0	1	1	0	12/sqrt(3)	1	1.05	0.95;
    22	1	0.007484333	    7.48E-05	    0	0	1	1	0	12/sqrt(3)	1	1.05	0.95;
    23	1	0.034165333	    0.000341653	    0	0	1	1	0	12/sqrt(3)	1	1.05	0.95;
    24	1	0.015535333	    0.000155353	    0	0	1	1	0	12/sqrt(3)	1	1.05	0.95;
    25	1	0.017548667	    0.000175487	    0	0	1	1	0	12/sqrt(3)	1	1.05	0.95;
    26	1	0.007739333	    7.74E-05	    0	0	1	1	0	12/sqrt(3)	1	1.05	0.95;
    27	1	0.001166667	    1.17E-05	    0	0	1	1	0	12/sqrt(3)	1	1.05	0.95;
    28	1	0.002838	    2.84E-05	    0	0	1	1	0	12/sqrt(3)	1	1.05	0.95;
    29	1	0.008333333	    8.33E-05	    0	0	1	1	0	12/sqrt(3)	1	1.05	0.95;
    30	1	0.090333333	    0.000903333	    0	0	1	1	0	12/sqrt(3)	1	1.05	0.95;
    31	1	0	            0	            0	0	1	1	0	12/sqrt(3)	1	1.05	0.95;
    32	1	0.019124333	    0.000191243	    0	0	1	1	0	12/sqrt(3)	1	1.05	0.95;
    33	1	-0.018339	    -0.00018339	    0	0	1	1	0	12/sqrt(3)	1	1.05	0.95;
    34	1	0.107100667	    0.001071007	    0	0	1	1	0	12/sqrt(3)	1	1.05	0.95;
    35	1	0.081759667	    0.000817597	    0	0	1	1	0	12/sqrt(3)	1	1.05	0.95;
    36	1	0.074532333	    0.000745323	    0	0	1	1	0	12/sqrt(3)	1	1.05	0.95;
    37	1	0	            0	            0   0	1	1	0	12/sqrt(3)	1	1.05	0.95;
    38	1	0.019531	    0.00019531	    0	0	1	1	0	12/sqrt(3)	1	1.05	0.95;
    39	1	0.009567	    9.57E-05	    0	0	1	1	0	12/sqrt(3)	1	1.05	0.95;
    40	1	0.016669667	    0.000166697	    0	0	1	1	0	12/sqrt(3)	1	1.05	0.95;
    41	1	0.000260333	    2.60E-06	    0	0	1	1	0	12/sqrt(3)	1	1.05	0.95;
    42	1	-0.093666667	-0.000936667	0	0	1	1	0	12/sqrt(3)	1	1.05	0.95;
    43	1	-0.121	        -0.00121	    0	0	1	1	0	12/sqrt(3)	1	1.05	0.95;
    44	1	0.026635667	    0.000266357	    0	0	1	1	0	12/sqrt(3)	1	1.05	0.95;
    45	1	0.001526	    1.53E-05	    0	0	1	1	0	12/sqrt(3)	1	1.05	0.95;
    46	1	0.015	        0.00015	        0	0	1	1	0	12/sqrt(3)	1	1.05	0.95;
    47	1	-0.195666667	-0.001956667	0	0	1	1	0	12/sqrt(3)	1	1.05	0.95;
    48	1	0.002748	    2.75E-05	    0	0	1	1	0	12/sqrt(3)	1	1.05	0.95;
    49	1	-0.0121	        -0.000121	    0	0	1	1	0	12/sqrt(3)	1	1.05	0.95;
    50	1	0.0044	        4.40E-05	    0	0	1	1	0	12/sqrt(3)	1	1.05	0.95;
    51	1	0.001533333	    1.53E-05	    0	0	1	1	0	12/sqrt(3)	1	1.05	0.95;
    52	1	-0.181333333	-0.001813333	0	0	1	1	0	12/sqrt(3)	1	1.05	0.95;
    53	1	0.006189333	    6.19E-05	    0	0	1	1	0	12/sqrt(3)	1	1.05	0.95;
    54	1	0.0021	        2.10E-05	    0	0	1	1	0	12/sqrt(3)	1	1.05	0.95;
    55	1	0.0006	        6.00E-06	    0	0	1	1	0	12/sqrt(3)	1	1.05	0.95;
    56	1	0.008821	    8.82E-05	    0	0	1	1	0	12/sqrt(3)	1	1.05	0.95;
    57	1	0.023519333	    0.000235193	    0	0	1	1	0	12/sqrt(3)	1	1.05	0.95;
    58	1	0.000946667	    9.47E-06	    0	0	1	1	0	12/sqrt(3)	1	1.05	0.95;
    59	1	-0.010598	    -0.00010598	    0	0	1	1	0	12/sqrt(3)	1	1.05	0.95;
    60	1	0.031601	    0.00031601	    0	0	1	1	0	12/sqrt(3)	1	1.05	0.95;
    61	1	0.056173333	    0.000561733	    0	0	1	1	0	12/sqrt(3)	1	1.05	0.95;
    62	1	0.016211667	    0.000162117	    0	0	1	1	0	12/sqrt(3)	1	1.05	0.95;
    63	1	0.022671	    0.00022671	    0	0	1	1	0	12/sqrt(3)	1	1.05	0.95;
    64	1	0.006514333	    6.51E-05	    0	0	1	1	0	12/sqrt(3)	1	1.05	0.95;
    65	1	0.006666667	    6.67E-05	    0	0	1	1	0	12/sqrt(3)	1	1.05	0.95;
    66	1	0.036542333	    0.000365423	    0	0	1	1	0	12/sqrt(3)	1	1.05	0.95;
    67	1	0.036350333	    0.000363503	    0	0	1	1	0	12/sqrt(3)	1	1.05	0.95;
    68	1	0.044479333	    0.000444793	    0	0	1	1	0	12/sqrt(3)	1	1.05	0.95;
    69	1	0.037717667	    0.000377177	    0	0	1	1	0	12/sqrt(3)	1	1.05	0.95;
    70	1	0.015331333	    0.000153313	    0	0	1	1	0	12/sqrt(3)	1	1.05	0.95;
    71	1	-0.017377333	-0.000173773	0	0	1	1	0	12/sqrt(3)	1	1.05	0.95;
    72	1	0.524666667	    0.005246667	    0	0	1	1	0	12/sqrt(3)	1	1.05	0.95;
    73	1	0.038666667	    0.000386667	    0	0	1	1	0	12/sqrt(3)	1	1.05	0.95;
    74	1	0.009	        9.00E-05	    0	0	1	1	0	12/sqrt(3)	1	1.05	0.95;
    75	1	0.028793333	    0.000287933	    0	0	1	1	0	12/sqrt(3)	1	1.05	0.95;
    76	1	0.005333333	    5.33E-05	    0	0	1	1	0	12/sqrt(3)	1	1.05	0.95;
    77	1	0.001703	    1.70E-05	    0	0	1	1	0	12/sqrt(3)	1	1.05	0.95;
    78	1	0.007500333	    7.50E-05	    0	0	1	1	0	12/sqrt(3)	1	1.05	0.95;
    79	1	0.002896333	    2.90E-05	    0	0	1	1	0	12/sqrt(3)	1	1.05	0.95;
    80	1	0.0018	        1.80E-05	    0	0	1	1	0	12/sqrt(3)	1	1.05	0.95;
    81	1	0	            0	            0	0	1	1	0	12/sqrt(3)	1	1.05	0.95;
    82	1	0.00476	        4.76E-05	    0	0	1	1	0	12/sqrt(3)	1	1.05	0.95;
    83	1	-0.004191333	-4.19E-05	    0	0	1	1	0	12/sqrt(3)	1	1.05	0.95;
    84	1	0.00571	        5.71E-05	    0	0	1	1	0	12/sqrt(3)	1	1.05	0.95;
    85	1	0.003115667	    3.12E-05	    0	0	1	1	0	12/sqrt(3)	1	1.05	0.95;
    86	1	-0.001128	    -1.13E-05	    0	0	1	1	0	12/sqrt(3)	1	1.05	0.95;
    87	1	0.001928333	    1.93E-05	    0	0	1	1	0	12/sqrt(3)	1	1.05	0.95;
    88	1	0.000581333	    5.81E-06	    0	0	1	1	0	12/sqrt(3)	1	1.05	0.95;
    89	1	0.003095	    3.10E-05	    0	0	1	1	0	12/sqrt(3)	1	1.05	0.95;
    90	1	0.004434333	    4.43E-05	    0	0	1	1	0	12/sqrt(3)	1	1.05	0.95;
    91	1	0.004522333	    4.52E-05	    0	0	1	1	0	12/sqrt(3)	1	1.05	0.95;
    92	1	0.001226333	    1.23E-05	    0	0	1	1	0	12/sqrt(3)	1	1.05	0.95;
    93	1	-0.007985667	-7.99E-05	    0	0	1	1	0	12/sqrt(3)	1	1.05	0.95;
    94	1	0.001045	    1.05E-05	    0	0	1	1	0	12/sqrt(3)	1	1.05	0.95;
    95	1	0.002198667	    2.20E-05	    0	0	1	1	0	12/sqrt(3)	1	1.05	0.95;
    96	1	0.001960667	    1.96E-05	    0	0	1	1	0	12/sqrt(3)	1	1.05	0.95;
    97	1	-0.004037333	-4.04E-05	    0	0	1	1	0	12/sqrt(3)	1	1.05	0.95;
    98	1	0.000889667	    8.90E-06	    0	0	1	1	0	12/sqrt(3)	1	1.05	0.95;
    99	1	0.002322333	    2.32E-05	    0	0	1	1	0	12/sqrt(3)	1	1.05	0.95;
    100	1	0.001514667	    1.51E-05	    0	0	1	1	0	12/sqrt(3)	1	1.05	0.95;
    101	1	-0.001014667	-1.01E-05	    0	0	1	1	0	12/sqrt(3)	1	1.05	0.95;
    102	1	-0.000569333	-5.69E-06	    0	0	1	1	0	12/sqrt(3)	1	1.05	0.95;
    103	1	0.001540667	    1.54E-05	    0	0	1	1	0	12/sqrt(3)	1	1.05	0.95;
    104	1	0.001713667	    1.71E-05	    0	0	1	1	0	12/sqrt(3)	1	1.05	0.95;
    105	1	0.010341333	    0.000103413	    0	0	1	1	0	12/sqrt(3)	1	1.05	0.95;
    106	1	0.001034	    1.03E-05	    0	0	1	1	0	12/sqrt(3)	1	1.05	0.95;
    107	1	0.010526	    0.00010526	    0	0	1	1	0	12/sqrt(3)	1	1.05	0.95;
    108	1	0.016171	    0.00016171	    0	0	1	1	0	12/sqrt(3)	1	1.05	0.95;
    109	1	0.0017	        1.70E-05	    0	0	1	1	0	12/sqrt(3)	1	1.05	0.95;
    110	1	-0.006899667	-6.90E-05	    0	0	1	1	0	12/sqrt(3)	1	1.05	0.95;
    111	1	0.002333333	    2.33E-05	    0	0	1	1	0	12/sqrt(3)	1	1.05	0.95;
    112	1	0.001	        1.00E-05	    0	0	1	1	0	12/sqrt(3)	1	1.05	0.95;
    113	1	0.002286667	    2.29E-05	    0	0	1	1	0	12/sqrt(3)	1	1.05	0.95;
    114	1	-0.148	        -0.00148	    0	0	1	1	0	12/sqrt(3)	1	1.05	0.95;
    115	1	0.001366667	    1.37E-05	    0	0	1	1	0	12/sqrt(3)	1	1.05	0.95;
    116	1	0.000533333	    5.33E-06	    0	0	1	1	0	12/sqrt(3)	1	1.05	0.95;
    117	1	0.000866667	    8.67E-06	    0	0	1	1	0	12/sqrt(3)	1	1.05	0.95;
    118	1	0.0019	        1.90E-05	    0	0	1	1	0	12/sqrt(3)	1	1.05	0.95;
    119	1	0.002525	    2.53E-05	    0	0	1	1	0	12/sqrt(3)	1	1.05	0.95;
    120	1	-0.002066667	-2.07E-05	    0	0	1	1	0	12/sqrt(3)	1	1.05	0.95;
    121	1	0.0037	        3.70E-05	    0	0	1	1	0	12/sqrt(3)	1	1.05	0.95;
    122	1	-0.002489333	-2.49E-05	    0	0	1	1	0	12/sqrt(3)	1	1.05	0.95;
    123	1	-0.163	        -0.00163	    0	0	1	1	0	12/sqrt(3)	1	1.05	0.95;
    124	1	-0.000433333	-4.33E-06	    0	0	1	1	0	12/sqrt(3)	1	1.05	0.95;
    125	1	-0.009256667	-9.26E-05	    0	0	1	1	0	12/sqrt(3)	1	1.05	0.95;
    126	1	-0.001566667	-1.57E-05	    0	0	1	1	0	12/sqrt(3)	1	1.05	0.95;
    127	1	-0.001365	    -1.37E-05	    0	0	1	1	0	12/sqrt(3)	1	1.05	0.95;
    128	1	0.005666667	    5.67E-05	    0	0	1	1	0	12/sqrt(3)	1	1.05	0.95;
    129	1	0.001833333	    1.83E-05	    0	0	1	1	0	12/sqrt(3)	1	1.05	0.95;
    130	1	0.000166667 	1.67E-06	    0	0	1	1	0	12/sqrt(3)	1	1.05	0.95;
    131	1	0.000252667	    2.53E-06	    0	0	1	1	0	12/sqrt(3)	1	1.05	0.95;
    132	1	0.003044667	    3.04E-05	    0	0	1	1	0	12/sqrt(3)	1	1.05	0.95;
    133	1	0.004182667	    4.18E-05	    0	0	1	1	0	12/sqrt(3)	1	1.05	0.95;
    134	1	0.001166667	    1.17E-05	    0	0	1	1	0	12/sqrt(3)	1	1.05	0.95;
    135	1	0.006259667	    6.26E-05	    0	0	1	1	0	12/sqrt(3)	1	1.05	0.95;
    136	1	0.0051	        5.10E-05	    0	0	1	1	0	12/sqrt(3)	1	1.05	0.95;
    137	1	0.001066667	    1.07E-05	    0	0	1	1	0	12/sqrt(3)	1	1.05	0.95;
    138	1	0.000204	    2.04E-06	    0	0	1	1	0	12/sqrt(3)	1	1.05	0.95;
    139	1	-0.004076	    -4.08E-05	    0	0	1	1	0	12/sqrt(3)	1	1.05	0.95;
    140	1	-0.001299667	-1.30E-05	    0	0	1	1	0	12/sqrt(3)	1	1.05	0.95;
    141	1	-0.003872	    -3.87E-05	    0	0	1	1	0	12/sqrt(3)	1	1.05	0.95;
    142	1	0.004060333	    4.06E-05	    0	0	1	1	0	12/sqrt(3)	1	1.05	0.95;
    143	1	-0.008910333	-8.91E-05	    0	0	1	1	0	12/sqrt(3)	1	1.05	0.95;
    144	1	-0.000287	    -2.87E-06	    0	0	1	1	0	12/sqrt(3)	1	1.05	0.95;
    145	1	0.006719333	    6.72E-05	    0	0	1	1	0	12/sqrt(3)	1	1.05	0.95;
    146	1	-0.004702667	-4.70E-05	    0	0	1	1	0	12/sqrt(3)	1	1.05	0.95;
    147	1	-0.002158333	-2.16E-05	    0	0	1	1	0	12/sqrt(3)	1	1.05	0.95;
    148	1	0.007329333	    7.33E-05	    0	0	1	1	0	12/sqrt(3)	1	1.05	0.95;
    149	1	-0.007299333	-7.30E-05	    0	0	1	1	0	12/sqrt(3)	1	1.05	0.95;
    150	1	-0.005500333	-5.50E-05	    0	0	1	1	0	12/sqrt(3)	1	1.05	0.95;
    151	1	0.004257	    4.26E-05	    0	0	1	1	0	12/sqrt(3)	1	1.05	0.95;
    152	1	0.008662333	    8.66E-05	    0	0	1	1	0	12/sqrt(3)	1	1.05	0.95;
    153	1	0	            0	            0	0	1	1	0	12/sqrt(3)	1	1.05	0.95;
    154	1	0.003066667	    3.07E-05	    0	0	1	1	0	12/sqrt(3)	1	1.05	0.95;
    155	1	0	            0	            0	0	1	1	0	12/sqrt(3)	1	1.05	0.95;
    156	1	0	            0	            0	0	1	1	0	12/sqrt(3)	1	1.05	0.95;
    157	1	0.002	        2.00E-05	    0	0	1	1	0	12/sqrt(3)	1	1.05	0.95;
    158	1	0	            0	            0	0	1	1	0	12/sqrt(3)	1	1.05	0.95;
    159	1	-0.005287	    -5.29E-05	    0	0	1	1	0	12/sqrt(3)	1	1.05	0.95;
    160	1	0	            0	            0	0	1	1	0	12/sqrt(3)	1	1.05	0.95;
    161	1	0.000333333	    3.33E-06	    0	0	1	1	0	12/sqrt(3)	1	1.05	0.95;
    162	1	0.000366667	    3.67E-06	    0	0	1	1	0	12/sqrt(3)	1	1.05	0.95;
    163	1	-0.005319333	-5.32E-05	    0	0	1	1	0	12/sqrt(3)	1	1.05	0.95;
    164	1	0.000533333	    5.33E-06	    0	0	1	1	0	12/sqrt(3)	1	1.05	0.95;
    165	1	0.001733333	    1.73E-05	    0	0	1	1	0	12/sqrt(3)	1	1.05	0.95;
    166	1	0.000643333	    6.43E-06	    0	0	1	1	0	12/sqrt(3)	1	1.05	0.95;
    167	1	0.051674667	    0.000516747	    0	0	1	1	0	12/sqrt(3)	1	1.05	0.95;
    168	1	0	            0	            0	0	1	1	0	12/sqrt(3)	1	1.05	0.95;
    169	1	-0.136333333	-0.001363333	0	0	1	1	0	12/sqrt(3)	1	1.05	0.95;
    170	1	0.058563333	    0.000585633	    0	0	1	1	0	12/sqrt(3)	1	1.05	0.95;
    171	1	0.023666667	    0.000236667	    0	0	1	1	0	12/sqrt(3)	1	1.05	0.95;
    172	1	0	            0	            0	0	1	1	0	12/sqrt(3)	1	1.05	0.95;
    173	1	-0.367666667	-0.003676667	0	0	1	1	0	12/sqrt(3)	1	1.05	0.95;
    174	1	-0.287666667	-0.002876667	0	0	1	1	0	12/sqrt(3)	1	1.05	0.95;
    175	1	-0.377666667	-0.003776667	0	0	1	1	0	12/sqrt(3)	1	1.05	0.95;
    176	1	-0.350666667	-0.003506667	0	0	1	1	0	12/sqrt(3)	1	1.05	0.95;
    177	1	-0.354666667	-0.003546667	0	0	1	1	0	12/sqrt(3)	1	1.05	0.95;
    178	1	0.000833333	    8.33E-06	    0	0	1	1	0	12/sqrt(3)	1	1.05	0.95;
    179	1	0	            0	            0	0	1	1	0	12/sqrt(3)	1	1.05	0.95;
    180	1	0.027366	    0.00027366	    0	0	1	1	0	12/sqrt(3)	1	1.05	0.95;
    181	1	0.006906667	    6.91E-05	    0	0	1	1	0	12/sqrt(3)	1	1.05	0.95;
    182	1	0.002566667	    2.57E-05	    0	0	1	1	0	12/sqrt(3)	1	1.05	0.95;
    183	1	0.007034333	    7.03E-05	    0	0	1	1	0	12/sqrt(3)	1	1.05	0.95;
    184	1	0.000333333	    3.33E-06	    0	0	1	1	0	12/sqrt(3)	1	1.05	0.95;
    185	1	0.001987333	    1.99E-05	    0	0	1	1	0	12/sqrt(3)	1	1.05	0.95;
    186	1	0.000385667	    3.86E-06	    0	0	1	1	0	12/sqrt(3)	1	1.05	0.95;
    187	1	-0.008466	    -8.47E-05	    0	0	1	1	0	12/sqrt(3)	1	1.05	0.95;
    188	1	0.001133667	    1.13E-05	    0	0	1	1	0	12/sqrt(3)	1	1.05	0.95;
    189	1	0.0014	        1.40E-05	    0	0	1	1	0	12/sqrt(3)	1	1.05	0.95;
    190	1	0.0012	        1.20E-05	    0	0	1	1	0	12/sqrt(3)	1	1.05	0.95;
    191	1	0.000466667	    4.67E-06	    0	0	1	1	0	12/sqrt(3)	1	1.05	0.95;
    192	1	0.0025	        2.50E-05	    0	0	1	1	0	12/sqrt(3)	1	1.05	0.95;
    193	1	0.002533333	    2.53E-05	    0	0	1	1	0	12/sqrt(3)	1	1.05	0.95;
    194	1	0.000580667	    5.81E-06	    0	0	1	1	0	12/sqrt(3)	1	1.05	0.95;
    195	1	-0.099666667	-0.000996667	0	0	1	1	0	12/sqrt(3)	1	1.05	0.95;
    196	1	0.006733333	    6.73E-05	    0	0	1	1	0	12/sqrt(3)	1	1.05	0.95;
    197	1	0.00021	        2.10E-06	    0	0	1	1	0	12/sqrt(3)	1	1.05	0.95;
    198	1	0.0024	        2.40E-05	    0	0	1	1	0	12/sqrt(3)	1	1.05	0.95;
    199	1	0.001133333	    1.13E-05	    0	0	1	1	0	12/sqrt(3)	1	1.05	0.95;
    200	1	0.000815	    8.15E-06	    0	0	1	1	0	12/sqrt(3)	1	1.05	0.95;
...
];

%% generator data

%	bus	Pg  Qg  Qmax    Qmin	Vg	mBase	status  Pmax    Pmin	Pc1	Pc2	Qc1min Qc1max Qc2min Qc2max	ramp_agc ramp_10 ramp_30 ramp_q apf
mpc.gen = [
    1	0	0	50/3    -50/3   1	50/3	1	    50/3    -50/3	0	0	0	0	0	0	0	0; % Only slack bus included
];

%% branch data

% Sbase_1ph = 50/3 MVA
% Vbase_LN = 135/sqrt(3) kV for lines 1-2, 1-3 and 4-1
% Vbase_LN = 12/sqrt(3) kV for remaining lines

% status = {0,1} => {disconnected,connected} in normal radial topology

%	fbus tbus   r           x           b	rateA	    rateB rateC	ratio angle	status angmin angmax ratedCurr
mpc.branch = [   %% (r, x and ratedCurr specified in p.u. here)
    1	2	    0.000289183	0.000475417	0	53.00075471	0	0	1	0	1	-360	360	3.180045283;
    1	3	    0.000328467	0.000662892	0	54.55960044	0	0	1	0	1	-360	360	3.273576026;
    4	1	    0.000961394	0.001996898	0	50.66248612	0	0	0	0	1	-360	360	3.039749167;
    5	2	    0.247364266	0.139251062	0	5.40399852	0	0	0	0	1	-360	360	0.324239911;
    5	6	    0.027863723	0.004373436	0	1.662768775	0	0	0	0	1	-360	360	0.099766127;
    6	7	    0.398977986	0.066484391	0	1.004589468	0	0	0	0	1	-360	360	0.060275368;
    7	8	    0.067883681	0.012975432	0	1.073871501	0	0	0	0	1	-360	360	0.06443229;
    5	9	    0.208766667	0.063536421	0	1.420281662	0	0	0	0	1	-360	360	0.0852169;
    9	10	    0.066111111	0.020120374	0	1.420281662	0	0	0	0	1	-360	360	0.0852169;
    11	10  	0.095	    0.029226847	0	1.420281662	0	0	0	0	1	-360	360	0.0852169;
    11	12  	0.090711111	0.028244336	0	1.420281662	0	0	0	0	1	-360	360	0.0852169;
    12	13  	0.067577778	0.020566742	0	1.420281662	0	0	0	0	1	-360	360	0.0852169;
    13	14  	0.156288264	0.029873274	0	1.073871501	0	0	0	0	1	-360	360	0.06443229;
    14	15  	0.075133333	0.022866213	0	1.420281662	0	0	0	0	1	-360	360	0.0852169;
    15	16  	0.219155556	0.066698194	0	1.420281662	0	0	0	0	1	-360	360	0.0852169;
    16	17  	0.0978	    0.029764627	0	1.420281662	0	0	0	0	1	-360	360	0.0852169;
    17	18  	0.235416667	0.023420137	0	0.692820323	0	0	0	0	1	-360	360	0.041569219;
    12	19  	0.294904514	0.052741123	0	1.004589468	0	0	0	0	1	-360	360	0.060275368;
    11	20  	0.139822222	0.043160902	0	1.420281662	0	0	0	0	1	-360	360	0.0852169;
    20	21  	0.137592431	0.026299712	0	1.073871501	0	0	0	0	1	-360	360	0.06443229;
    5	22	    0.239918542	0.041684789	0	0.969948452	0	0	0	0	1	-360	360	0.058196907;
    5	23	    0.043220833	0.024010276	0	2.078460969	0	0	0	0	1	-360	360	0.124707658;
    24	23  	0.090162882	0.014582553	0	0.969948452	0	0	0	0	1	-360	360	0.058196907;
    24	25  	0.04400441	0.008386089	0	0.969948452	0	0	0	0	1	-360	360	0.058196907;
    25	26  	0.074835486	0.012553608	0	0.969948452	0	0	0	0	1	-360	360	0.058196907;
    26	27  	0.169541493	0.026580165	0	0.831384388	0	0	0	0	1	-360	360	0.049883063;
    2	3	    0.032371494	0.017194544	0	7.343895424	0	0	0	0	0	-360	360	0.440633725;
    28	2	    0.015817569	0.008259662	0	1.80133284	0	0	0	0	1	-360	360	0.10807997;
    29	28  	0.04492691	0.022563835	0	1.80133284	0	0	0	0	1	-360	360	0.10807997;
    29	30  	0.049522083	0.026264914	0	1.80133284	0	0	0	0	1	-360	360	0.10807997;
    31	30  	0.044647396	0.026960865	0	2.078460969	0	0	0	0	1	-360	360	0.124707658;
    31	32  	0.00984809	0.006746897	0	2.355589098	0	0	0	0	1	-360	360	0.141335346;
    32	33  	0.014038229	0.008455466	0	2.078460969	0	0	0	0	1	-360	360	0.124707658;
    34	33  	0.04824875	0.025954464	0	1.80133284	0	0	0	0	1	-360	360	0.10807997;
    34	35  	0.033796771	0.016953801	0	1.80133284	0	0	0	0	1	-360	360	0.10807997;
    36	2	    0.090628368	0.047669523	0	1.80133284	0	0	0	0	1	-360	360	0.10807997;
    36	34  	0.014013646	0.009037206	0	1.80133284	0	0	0	0	0	-360	360	0.10807997;
    36	37  	0.170242083	0.085905542	0	1.80133284	0	0	0	0	1	-360	360	0.10807997;
    38	2	    0.025255833	0.014019794	0	2.078460969	0	0	0	0	1	-360	360	0.124707658;
    38	39  	0.021056806	0.010625128	0	1.80133284	0	0	0	0	1	-360	360	0.10807997;
    40	39  	0.020606771	0.010398344	0	1.80133284	0	0	0	0	1	-360	360	0.10807997;
    6	41	    0.142377674	0.024212407	0	1.004589468	0	0	0	0	1	-360	360	0.060275368;
    42	41  	0.149054757	0.025026167	0	1.004589468	0	0	0	0	1	-360	360	0.060275368;
    42	43  	0.074605278	0.014260213	0	1.073871501	0	0	0	0	1	-360	360	0.06443229;
    5	44	    0.135366736	0.022557072	0	1.004589468	0	0	0	0	1	-360	360	0.060275368;
    44	22  	0.101668611	0.016544849	0	0.969948452	0	0	0	0	0	-360	360	0.058196907;
    22	45  	0.183953646	0.030653436	0	1.004589468	0	0	0	0	1	-360	360	0.060275368;
    5	46	    0.042744444	0.013008921	0	1.420281662	0	0	0	0	1	-360	360	0.0852169;
    23	46  	0.052677778	0.016032049	0	1.420281662	0	0	0	0	0	-360	360	0.0852169;
    5	47	    0.506677778	0.154203221	0	1.420281662	0	0	0	0	1	-360	360	0.0852169;
    5	48	    0.263688889	0.080251548	0	1.420281662	0	0	0	0	1	-360	360	0.0852169;
    49	48  	0.074255556	0.022599069	0	1.420281662	0	0	0	0	1	-360	360	0.0852169;
    50	49  	0.099855556	0.030390218	0	1.420281662	0	0	0	0	1	-360	360	0.0852169;
    51	50  	0.145711111	0.04434598	0	1.420281662	0	0	0	0	1	-360	360	0.0852169;
    52	51  	0.075566667	0.022998094	0	1.420281662	0	0	0	0	1	-360	360	0.0852169;
    52	17  	0.1074	    0.033507049	0	1.420281662	0	0	0	0	0	-360	360	0.0852169;
    49	53  	0.109838021	0.01830305	0	1.004589468	0	0	0	0	1	-360	360	0.060275368;
    53	54  	0.244916667	0.024365233	0	0.692820323	0	0	0	0	1	-360	360	0.041569219;
    55	48  	0.416416667	0.041426699	0	0.692820323	0	0	0	0	1	-360	360	0.041569219;
    5	56	    0.0834	    0.025382105	0	1.420281662	0	0	0	0	1	-360	360	0.0852169;
    56	57  	0.114890347	0.018636517	0	0.969948452	0	0	0	0	1	-360	360	0.058196907;
    57	58  	0.15733434	0.025462281	0	0.969948452	0	0	0	0	1	-360	360	0.058196907;
    59	58  	0.557958333	0.055507797	0	0.692820323	0	0	0	0	1	-360	360	0.041569219;
    57	25  	0.219097604	0.046946193	0	0.969948452	0	0	0	0	0	-360	360	0.058196907;
    60	2	    0.084021528	0.046676104	0	2.078460969	0	0	0	0	1	-360	360	0.124707658;
    61	60  	0.0304425	0.016911586	0	2.078460969	0	0	0	0	1	-360	360	0.124707658;
    62	61  	0.022760694	0.012644147	0	2.078460969	0	0	0	0	1	-360	360	0.124707658;
    63	2	    0.050245903	0.02779055	0	1.80133284	0	0	0	0	1	-360	360	0.10807997;
    64	63  	0.09060441	0.049270645	0	1.073871501	0	0	0	0	1	-360	360	0.06443229;
    65	64  	0.036736667	0.016807521	0	1.835973856	0	0	0	0	1	-360	360	0.110158431;
    65	66  	0.028608229	0.014435945	0	1.80133284	0	0	0	0	1	-360	360	0.10807997;
    67	66  	0.165348924	0.035577555	0	1.039230485	0	0	0	0	0	-360	360	0.062353829;
    68	67  	0.142671424	0.03071594	0	1.039230485	0	0	0	0	1	-360	360	0.062353829;
    64	69  	0.064307361	0.035724381	0	2.078460969	0	0	0	0	1	-360	360	0.124707658;
    62	69  	0.079568472	0.044202318	0	2.078460969	0	0	0	0	0	-360	360	0.124707658;
    69	70  	0.054618611	0.025385814	0	1.80133284	0	0	0	0	1	-360	360	0.10807997;
    70	71  	0.025356597	0.011398854	0	1.80133284	0	0	0	0	1	-360	360	0.10807997;
    72	2	    0.006648256	0.003693276	0	8.313843876	0	0	0	0	1	-360	360	0.498830633;
    73	74  	0.050230694	0.027904433	0	2.078460969	0	0	0	0	1	-360	360	0.124707658;
    74	2	    0.025733194	0.014295446	0	2.078460969	0	0	0	0	1	-360	360	0.124707658;
    75	73	    0.012142083	0.006888378	0	2.078460969	0	0	0	0	0	-360	360	0.124707658;
    72	76	    0.049057639	0.027252771	0	2.078460969	0	0	0	0	1	-360	360	0.124707658;
    75	76	    0.048884444	0.027444975	0	2.078460969	0	0	0	0	1	-360	360	0.124707658;
    77	2	    0.574452639	0.105789533	0	0.831384388	0	0	0	0	1	-360	360	0.049883063;
    75	77	    0.222536944	0.036927022	0	0.969948452	0	0	0	0	0	-360	360	0.058196907;
    75	78	    0.647027222	0.139436645	0	0.969948452	0	0	0	0	1	-360	360	0.058196907;
    78	79	    0.238282847	0.039368737	0	0.969948452	0	0	0	0	1	-360	360	0.058196907;
    80	79	    0.247356632	0.046012115	0	0.969948452	0	0	0	0	1	-360	360	0.058196907;
    81	2	    0.046489327	0.025826008	0	4.156921938	0	0	0	0	1	-360	360	0.249415316;
    77	82	    0.154396424	0.024971407	0	0.969948452	0	0	0	0	1	-360	360	0.058196907;
    83	3	    0.071801944	0.037280778	0	1.80133284	0	0	0	0	1	-360	360	0.10807997;
    83	84	    0.145632326	0.039760018	0	1.212435565	0	0	0	0	1	-360	360	0.072746134;
    84	85	    0.0665	    0.020238729	0	1.420281662	0	0	0	0	1	-360	360	0.0852169;
    86	85	    0.14211059	0.027163323	0	1.073871501	0	0	0	0	1	-360	360	0.06443229;
    87	85	    0.108955556	0.033159729	0	1.420281662	0	0	0	0	1	-360	360	0.0852169;
    87	88	    0.174583472	0.031018428	0	1.004589468	0	0	0	0	1	-360	360	0.060275368;
    88	89	    0.202983333	0.033824481	0	1.004589468	0	0	0	0	1	-360	360	0.060275368;
    90	87	    0.030888889	0.00940078	0	1.420281662	0	0	0	0	1	-360	360	0.0852169;
    91	90	    0.089866667	0.027350182	0	1.420281662	0	0	0	0	1	-360	360	0.0852169;
    91	92	    0.1394175	0.026613653	0	1.004589468	0	0	0	0	1	-360	360	0.060275368;
    93	91	    0.069133333	0.021040162	0	1.420281662	0	0	0	0	1	-360	360	0.0852169;
    93	94	    0.089666667	0.027289314	0	1.420281662	0	0	0	0	1	-360	360	0.0852169;
    95	94	    0.085977778	0.026166631	0	1.420281662	0	0	0	0	1	-360	360	0.0852169;
    96	95	    0.155377778	0.047287951	0	1.420281662	0	0	0	0	1	-360	360	0.0852169;
    97	96	    0.253416667	0.025210845	0	0.692820323	0	0	0	0	1	-360	360	0.041569219;
    98	96	    0.129112535	0.021514892	0	1.004589468	0	0	0	0	1	-360	360	0.060275368;
    99	98	    0.204941944	0.034150857	0	1.004589468	0	0	0	0	1	-360	360	0.060275368;
    99	100	    0.330416667	0.032871095	0	0.692820323	0	0	0	0	1	-360	360	0.041569219;
    84	101	    0.18617934	0.030111838	0	0.969948452	0	0	0	0	1	-360	360	0.058196907;
    101	102	    0.168462813	0.027255389	0	0.969948452	0	0	0	0	1	-360	360	0.058196907;
    103	102	    0.143077778	0.043544547	0	1.420281662	0	0	0	0	1	-360	360	0.0852169;
    104	103	    0.362375	0.03605043	0	0.692820323	0	0	0	0	1	-360	360	0.041569219;
    103	105	    0.122079306	0.067922978	0	2.078460969	0	0	0	0	1	-360	360	0.124707658;
    106	105	    0.153704931	0.026831274	0	1.004589468	0	0	0	0	1	-360	360	0.060275368;
    105	107	    0.065530486	0.015646549	0	1.212435565	0	0	0	0	1	-360	360	0.072746134;
    107	108	    0.087890938	0.019427151	0	1.212435565	0	0	0	0	1	-360	360	0.072746134;
    109	3	    0.353377431	0.177703643	0	1.80133284	0	0	0	0	1	-360	360	0.10807997;
    109	110	    0.221488889	0.067408325	0	1.420281662	0	0	0	0	1	-360	360	0.0852169;
    111	110	    0.078588889	0.023917883	0	1.420281662	0	0	0	0	1	-360	360	0.0852169;
    111	112	    0.108177778	0.032923018	0	1.420281662	0	0	0	0	1	-360	360	0.0852169;
    112	113	    0.105922222	0.032236559	0	1.420281662	0	0	0	0	1	-360	360	0.0852169;
    114	113	    0.100433333	0.031636165	0	1.420281662	0	0	0	0	1	-360	360	0.0852169;
    114	115	    0.108611458	0.034103843	0	1.073871501	0	0	0	0	1	-360	360	0.06443229;
    115	116	    0.129112535	0.021514892	0	1.004589468	0	0	0	0	1	-360	360	0.060275368;
    115	117	    0.093466667	0.028445812	0	1.420281662	0	0	0	0	1	-360	360	0.0852169;
    117	118	    0.038955556	0.011855803	0	1.420281662	0	0	0	0	1	-360	360	0.0852169;
    119	118	    0.119226771	0.024668375	0	1.073871501	0	0	0	0	1	-360	360	0.06443229;
    119	120	    0.135365833	0.027551986	0	1.073871501	0	0	0	0	1	-360	360	0.06443229;
    121	120	    0.259122222	0.078861721	0	1.420281662	0	0	0	0	1	-360	360	0.0852169;
    122	121	    0.17948	    0.029907962	0	1.004589468	0	0	0	0	1	-360	360	0.060275368;
    114	123	    0.064567396	0.01234155	0	1.073871501	0	0	0	0	1	-360	360	0.06443229;
    113	124	    0.088722222	0.02700188	0	1.420281662	0	0	0	0	1	-360	360	0.0852169;
    124	125	    0.155555556	0.047342056	0	1.420281662	0	0	0	0	1	-360	360	0.0852169;
    125	126	    0.112988889	0.034387241	0	1.420281662	0	0	0	0	1	-360	360	0.0852169;
    127	126	    0.136781667	0.03022583	0	0.969948452	0	0	0	0	1	-360	360	0.058196907;
    128	127	    0.088768194	0.019174514	0	0.969948452	0	0	0	0	1	-360	360	0.058196907;
    128	129	    0.016311111	0.005924956	0	1.628127759	0	0	0	0	1	-360	360	0.097687666;
    80	110	    0.2206	    0.067137799	0	1.420281662	0	0	0	0	0	-360	360	0.0852169;
    80	130	    0.429416667	0.042719988	0	0.692820323	0	0	0	0	1	-360	360	0.041569219;
    131	109	    0.326019722	0.053741415	0	0.969948452	0	0	0	0	1	-360	360	0.058196907;
    132	3	    0.142785278	0.068693432	0	1.80133284	0	0	0	0	1	-360	360	0.10807997;
    133	132 	0.077233333	0.023505331	0	1.420281662	0	0	0	0	1	-360	360	0.0852169;
    133	134 	0.1178	    0.035851463	0	1.420281662	0	0	0	0	1	-360	360	0.0852169;
    134	135 	0.089677778	0.027292695	0	1.420281662	0	0	0	0	1	-360	360	0.0852169;
    135	136 	0.084344444	0.025669539	0	1.420281662	0	0	0	0	1	-360	360	0.0852169;
    137	136 	0.114422222	0.034823464	0	1.420281662	0	0	0	0	1	-360	360	0.0852169;
    137	138 	0.095366667	0.029024062	0	1.420281662	0	0	0	0	1	-360	360	0.0852169;
    138	139 	0.0683	    0.020911008	0	1.420281662	0	0	0	0	1	-360	360	0.0852169;
    139	140 	0.142166667	0.044101089	0	1.420281662	0	0	0	0	1	-360	360	0.0852169;
    140	141 	0.137922222	0.041975496	0	1.420281662	0	0	0	0	1	-360	360	0.0852169;
    142	141 	0.093588889	0.02848301	0	1.420281662	0	0	0	0	1	-360	360	0.0852169;
    142	143 	0.098411111	0.029950614	0	1.420281662	0	0	0	0	1	-360	360	0.0852169;
    143	95	    0.145211111	0.044193809	0	1.420281662	0	0	0	0	0	-360	360	0.0852169;
    144	142 	0.168351528	0.02805355	0	1.004589468	0	0	0	0	1	-360	360	0.060275368;
    145	144 	0.333083333	0.033136385	0	0.692820323	0	0	0	0	1	-360	360	0.041569219;
    146	142 	0.106777778	0.03249694	0	1.420281662	0	0	0	0	1	-360	360	0.0852169;
    147	146 	0.096511111	0.029372364	0	1.420281662	0	0	0	0	1	-360	360	0.0852169;
    146	148 	0.352625	0.035080463	0	0.692820323	0	0	0	0	1	-360	360	0.041569219;
    141	149 	0.064777778	0.019714585	0	1.420281662	0	0	0	0	1	-360	360	0.0852169;
    150	149 	0.119244444	0.036291067	0	1.420281662	0	0	0	0	1	-360	360	0.0852169;
    150	151 	0.168062188	0.028005335	0	1.004589468	0	0	0	0	1	-360	360	0.060275368;
    150	152 	0.088344444	0.026886906	0	1.420281662	0	0	0	0	0	-360	360	0.0852169;
    152	153 	0.128155556	0.039003091	0	1.420281662	0	0	0	0	1	-360	360	0.0852169;
    153	154 	0.016778264	0.008928668	0	0.831384388	0	0	0	0	1	-360	360	0.049883063;
    155	153 	0.120625903	0.064191901	0	0.831384388	0	0	0	0	1	-360	360	0.049883063;
    156	153 	0.096222222	0.029284443	0	1.420281662	0	0	0	0	1	-360	360	0.0852169;
    156	157 	0.016274028	0.010763445	0	1.073871501	0	0	0	0	1	-360	360	0.06443229;
    158	156 	0.11188625	0.074000215	0	1.073871501	0	0	0	0	1	-360	360	0.06443229;
    158	159 	0.056621667	0.00943525	0	1.004589468	0	0	0	0	1	-360	360	0.060275368;
    158	160 	0.090421528	0.059803707	0	1.073871501	0	0	0	0	1	-360	360	0.06443229;
    161	159 	0.515041667	0.051238285	0	0.692820323	0	0	0	0	1	-360	360	0.041569219;
    162	161 	0.141331597	0.023551037	0	1.004589468	0	0	0	0	1	-360	360	0.060275368;
    160	163 	0.022489063	0.022701825	0	1.454922678	0	0	0	0	1	-360	360	0.087295361;
    160	147 	0.059340625	0.039665116	0	1.420281662	0	0	0	0	1	-360	360	0.0852169;
    155	164 	0.102819444	0.054716072	0	0.831384388	0	0	0	0	1	-360	360	0.049883063;
    155	165 	0.154930208	0.082447172	0	0.831384388	0	0	0	0	1	-360	360	0.049883063;
    166	136 	0.249375	0.024808764	0	0.692820323	0	0	0	0	1	-360	360	0.041569219;
    167	3	    0.042019306	0.023342797	0	2.078460969	0	0	0	0	1	-360	360	0.124707658;
    168	167 	0.0206	    0.009225701	0	1.80133284	0	0	0	0	1	-360	360	0.10807997;
    169	168 	0.056800208	0.025753315	0	1.80133284	0	0	0	0	1	-360	360	0.10807997;
    169	170 	0.060433819	0.027241972	0	1.80133284	0	0	0	0	1	-360	360	0.10807997;
    170	171 	0.074968264	0.033727724	0	1.80133284	0	0	0	0	1	-360	360	0.10807997;
    172	3	    0.183204209	0.124319448	0	4.711178197	0	0	0	0	1	-360	360	0.282670692;
    173	172 	0.064433333	0.019609756	0	1.420281662	0	0	0	0	1	-360	360	0.0852169;
    174	172 	0.067288889	0.020478821	0	1.420281662	0	0	0	0	1	-360	360	0.0852169;
    175	172 	0.032944444	0.010026371	0	1.420281662	0	0	0	0	1	-360	360	0.0852169;
    176	172 	0.001111111	0.000338158	0	1.420281662	0	0	0	0	1	-360	360	0.0852169;
    177	172 	0.034911111	0.01062491	0	1.420281662	0	0	0	0	1	-360	360	0.0852169;
    178	3	    0.400299236	0.173651861	0	1.524204711	0	0	0	0	1	-360	360	0.091452283;
    179	178 	0.086705972	0.039369065	0	1.80133284	0	0	0	0	1	-360	360	0.10807997;
    179	180 	0.052424861	0.019690041	0	1.420281662	0	0	0	0	0	-360	360	0.0852169;
    179	181 	0.045055556	0.013712288	0	1.420281662	0	0	0	0	1	-360	360	0.0852169;
    181	182 	0.043315764	0.018144007	0	1.420281662	0	0	0	0	1	-360	360	0.0852169;
    182	183 	0.119777778	0.036453383	0	1.420281662	0	0	0	0	1	-360	360	0.0852169;
    183	184 	0.107988889	0.032865532	0	1.420281662	0	0	0	0	1	-360	360	0.0852169;
    184	185 	0.077922222	0.023714988	0	1.420281662	0	0	0	0	1	-360	360	0.0852169;
    186	185 	0.142655556	0.043416047	0	1.420281662	0	0	0	0	1	-360	360	0.0852169;
    186	187 	0.222243889	0.036331319	0	0.969948452	0	0	0	0	1	-360	360	0.058196907;
    187	188 	0.070722222	0.021523728	0	1.420281662	0	0	0	0	1	-360	360	0.0852169;
    189	188 	0.088977778	0.027079656	0	1.420281662	0	0	0	0	1	-360	360	0.0852169;
...
];